*Heading
** Job name: test1_StripWithHole Model name: Model-1
** Generated by: Abaqus/CAE Student Edition 6.14-2
*Preprint, echo=NO, model=NO, history=NO, contact=NO
**
** PARTS
**
*Part, name=Part-1
*Node
      1,          15.,         32.5
      2,          15.,   30.5286636
      3,          15.,           0.
      4,          30.,           0.
      5,          30.,          35.
      6,   19.4713364,          35.
      7,         17.5,          35.
      8,          30.,          65.
      9,          15.,          65.
     10,          15.,   39.4713364
     11,          15.,         37.5
     12,         12.5,          35.
     13,   10.5286636,          35.
     14,           0.,          35.
     15,           0.,           0.
     16,           0.,          65.
     17,          15.,    32.401432
     18,          15.,   32.3028679
     19,          15.,   32.2042999
     20,          15.,    32.105732
** ... 6782 like lines cut
*Element, type=CPS3
   1,  970,   28,   29
   2, 1024,  976,    2
   3, 1026, 1024,   36
   4, 1401, 1313, 1361
   5, 1586,  615, 1554
   6, 1843,  642, 1807
   7, 2073,  656, 2000
   8, 2251, 2209, 2231
   9, 2280, 2270, 2274
  10, 2284,  698, 2276
  11, 2315, 2313, 2314
  12, 2310, 2198,  726
  13, 2010,  740,  739
  14, 2021,  754,  753
  15, 1901,  768,  767
  16, 1899,  112, 1823
  17, 1858, 1823,  113
  18, 1858,  113,  114
  19, 1858,  768, 1823
  20, 1964, 1909,  754
** ... 13188 like lines cut
*Nset, nset=Set-5, generate
    1,  6802,     1
*Elset, elset=Set-5, generate
     1,  13208,      1
** Section: Section-1
*Solid Section, elset=Set-5, material=Material-1
,
*End Part
**  
**
** ASSEMBLY
**
*Assembly, name=Assembly
**  
*Instance, name=Part-1-1, part=Part-1
*End Instance
**  
*Nset, nset=Set-1, instance=Part-1-1
   3,   4,  15,  75,  76,  77,  78,  79,  80,  81,  82,  83,  84,  85,  86,  87
  88,  89,  90,  91,  92, 428, 429, 430, 431, 432, 433, 434, 435, 436, 437, 438
 439, 440, 441, 442, 443, 444, 445
*Elset, elset=Set-1, instance=Part-1-1
   49,   51,   52,   53,   54,   55,   56,   57,   58,   59,   60,   61,   62,  150,  189,  234
  249,  251,  894, 6954, 6968, 6981, 6992, 6993, 7004, 7013, 7014, 7023, 7031, 7037, 7038, 7044
 7049, 7053, 7056, 7057, 7537, 7541
*Nset, nset=Set-2, instance=Part-1-1
 15,
*Elset, elset=_Surf-1_S1, internal, instance=Part-1-1
  4457,  4458,  9860, 10067, 10637, 10638
*Elset, elset=_Surf-1_S2, internal, instance=Part-1-1
  3934,  3947,  3970,  3979,  3980,  3997,  4003,  4004,  4015,  4018,  4019,  4023,  9862,  9863,  9864,  9865
  9866,  9867,  9868,  9869,  9870,  9871,  9872,  9873,  9966, 10050, 10065
*Elset, elset=_Surf-1_S3, internal, instance=Part-1-1
 3920, 3959, 3989, 4010, 4022
*Surface, type=ELEMENT, name=Surf-1
_Surf-1_S1, S1
_Surf-1_S2, S2
_Surf-1_S3, S3
*End Assembly
** 
** MATERIALS
** 
*Material, name=Material-1
*Elastic
2000., 0.3
** ----------------------------------------------------------------
** 
** STEP: Step-1
** 
*Step, name=Step-1, nlgeom=NO
*Static
1., 1., 1e-05, 1.
** 
** BOUNDARY CONDITIONS
** 
** Name: BC-1 Type: Displacement/Rotation
*Boundary
Set-1, 2, 2
** Name: BC-2 Type: Displacement/Rotation
*Boundary
Set-2, 1, 1
Set-2, 2, 2
** 
** LOADS
** 
** Name: Load-1   Type: Pressure
*Dsload
Surf-1, P, -1.
** 
** OUTPUT REQUESTS
** 
*Restart, write, frequency=0
** 
** FIELD OUTPUT: F-Output-1
** 
*Output, field, variable=PRESELECT
** 
** HISTORY OUTPUT: H-Output-1
** 
*Output, history, variable=PRESELECT
*End Step
