*Heading
** Job name: test3_constructionElement Model name: Model-1
** Generated by: Abaqus/CAE 6.14-4
*Preprint, echo=NO, model=NO, history=NO, contact=NO
**
** PARTS
**
*Part, name=Part-1
*Node
      1,          2.5,          55.
      2,          2.5,         57.5
      3,           0.,          55.
      4,           0.,           0.
      5,           5.,           0.
      6,           5.,         27.5
      7,          7.5,          30.
      8,         27.5,          30.
      9,          30.,         27.5
     10,          30.,           0.
     11,          35.,           0.
     12,          35.,         32.5
     13,         32.5,          35.
     14,          30.,          35.
     15,          7.5,          35.
     16,           5.,         37.5
     17,           5.,          55.
     18,          2.5,         55.5
     19,          2.5,          56.
     20,          2.5,         56.5
** ... 2672 like lines cut
*Element, type=CPS3
 1, 492,  24,  25
 2, 494,  27,  28
 3, 494, 493,  27
 4,  21,   2,  22
 5, 495,  21,  22
 6, 499,  25,  26
 7, 501, 494, 497
 8, 495,  22,  23
 9, 498,  24, 492
10, 501, 493, 494
11, 494,  28,  29
12,  28,   3,  29
13, 503,  32, 500
14, 500,  19, 496
15, 504, 496, 502
16,  32,   1,  18
17, 496,  20, 495
18, 502, 495, 498
19, 493,  26,  27
20, 497, 494,  30
** ... 4884 like lines cut
*Nset, nset=Set-2, generate
    1,  2692,     1
*Elset, elset=Set-2, generate
    1,  4904,     1
** Section: Section-1
*Solid Section, elset=Set-2, material=Material-1
,
*End Part
**  
**
** ASSEMBLY
**
*Assembly, name=Assembly
**  
*Instance, name=Part-1-1, part=Part-1
*End Instance
**  
*Nset, nset=Set-1, instance=Part-1-1
 1,
*Nset, nset=Set-2, instance=Part-1-1
   4,   5,  10,  11, 142, 143, 144, 145, 146, 147, 148, 149, 150, 312, 313, 314
 315, 316, 317, 318, 319, 320
*Elset, elset=Set-2, instance=Part-1-1
  412,  418,  422,  425,  503, 1145, 1203, 1207, 1266, 1295, 1299, 1612, 1616, 1620, 1663, 1664
 1665, 1666, 1667, 2084
*End Assembly
** 
** MATERIALS
** 
*Material, name=Material-1
*Elastic
2000., 0.3
** 
** BOUNDARY CONDITIONS
** 
** Name: BC-1 Type: Displacement/Rotation
*Boundary
Set-2, 1, 1
Set-2, 2, 2
** ----------------------------------------------------------------
** 
** STEP: Step-1
** 
*Step, name=Step-1, nlgeom=NO
*Static
1., 1., 1e-05, 1.
** 
** LOADS
** 
** Name: Load-1   Type: Concentrated force
*Cload
Set-1, 1, -1.
** 
** OUTPUT REQUESTS
** 
*Restart, write, frequency=0
** 
** FIELD OUTPUT: F-Output-1
** 
*Output, field, variable=PRESELECT
** 
** HISTORY OUTPUT: H-Output-1
** 
*Output, history, variable=PRESELECT
*End Step
