*Heading
** Job name: PlateWithHole_CPS3 Model name: Model-1
** Generated by: Abaqus/CAE Student Edition 6.14-2
*Preprint, echo=NO, model=NO, history=NO, contact=NO
**
** PARTS
**
*Part, name=Part-1
*Node
      1,           0.,        28.75
      2,        26.25,        28.75
      3,           0.,           5.
      4,    4.7552824,   1.54508495
      5,   4.04508495,   2.93892622
      6,   2.93892622,   4.04508495
      7,   1.54508495,    4.7552824
      8,           5.,           0.
      9,        26.25,           0.
     10,         3.75,        28.75
     11,          7.5,        28.75
     12,        11.25,        28.75
     13,          15.,        28.75
     14,        18.75,        28.75
     15,         22.5,        28.75
     16,           0.,   5.55664063
     17,           0.,     6.484375
     18,           0.,   8.95833302
     19,           0.,    12.916667
     20,           0.,       16.875
** ... 126 like lines cut
*Element, type=CPS3
  1,  55,   7,  34
  2,  69,  52,  68
  3,  70,  65,  64
  4,  72,  62,  56
  5, 107,  15,  14
  6,  51,  31,  30
  7,  22,  10,   1
  8, 108,  10,  22
  9, 114,  20, 113
 10,  65,  51,  50
 11,  64,  50,  59
 12, 145, 144, 142
 13,  16,   3,  37
 14,  54,  16,  37
 15,  75,  58,  67
 16, 103, 101,  92
 17, 137, 131, 134
 18, 112,  22,  21
 19,  23,   8,  43
 20,  53,  23,  43
** ... 221 like lines cut
*Nset, nset=Set-4, generate
   1,  146,    1
*Elset, elset=Set-4, generate
   1,  241,    1
** Section: Section-1
*Solid Section, elset=Set-4, material=Material-1
1.,
*End Part
**  
**
** ASSEMBLY
**
*Assembly, name=Assembly
**  
*Instance, name=Part-1-1, part=Part-1
*End Instance
**  
*Nset, nset=Set-1, instance=Part-1-1
  8,  9, 38, 39, 40, 41, 42, 43
*Elset, elset=Set-1, instance=Part-1-1
  19,  32,  36,  37, 101, 189, 191
*Nset, nset=Set-2, instance=Part-1-1
  1,  3, 16, 17, 18, 19, 20, 21, 22
*Elset, elset=Set-2, instance=Part-1-1
   7,  13,  18,  53, 118, 126, 172, 174
*Elset, elset=_Surf-1_S2, internal, instance=Part-1-1
   5,   7,  38, 163, 164, 166, 168
*Surface, type=ELEMENT, name=Surf-1
_Surf-1_S2, S2
*End Assembly
** 
** MATERIALS
** 
*Material, name=Material-1
*Elastic
2000., 0.3
** 
** BOUNDARY CONDITIONS
** 
** Name: BC-1 Type: Displacement/Rotation
*Boundary
Set-1, 2, 2
** Name: BC-2 Type: Displacement/Rotation
*Boundary
Set-2, 1, 1
** ----------------------------------------------------------------
** 
** STEP: Step-1
** 
*Step, name=Step-1, nlgeom=NO
*Static
1., 1., 1e-05, 1.
** 
** LOADS
** 
** Name: Load-1   Type: Pressure
*Dsload
Surf-1, P, -1.
** 
** OUTPUT REQUESTS
** 
*Restart, write, frequency=0
** 
** FIELD OUTPUT: F-Output-1
** 
*Output, field, variable=PRESELECT
** 
** HISTORY OUTPUT: H-Output-1
** 
*Output, history, variable=PRESELECT
*End Step
